this is new text file.

new line.

JONG

PARK

what is goin on?
what the
