this is new text file.

new line.

<<<<<<< HEAD
<<<<<<< HEAD
<<<<<<< HEAD
What is going on repo2?

hahaha
=======
JONG
>>>>>>> More
=======
JONG

Park
>>>>>>> more+
=======
JONG
>>>>>>> Revert "more+"
