this is new text file.

new line.

What is going on repo2?

hahaha