this is new text file.

new line.

<<<<<<< HEAD
What is going on repo2?

hahaha
=======
JONG
>>>>>>> More
