this is new text file.

new line.

JONG

PARK

what the
Park